<?xml version="1.0" encoding="UTF-8"?>
<flow id="af3ea868-08e0-45bf-96dc-c0edf14df4ba">
  <descriptionCdata><![CDATA[af3ea868-08e0-45bf-96dc-c0edf14df4ba.4f5a7589-c569-4285-a5ee-5b5d57ff686e.description=<pre>\nSchedule Flow - Schedules a flow or updates an existing schedule of a flow.\n\nInputs\:\n    host - The target host for your request. The host can also be given as a URL.\n    username - The username to use when connecting to the Central service.\n    password - The password to use when connecting to the Central service.\n    port - The port the Central service is running on.\nDefault value\: 8080.\n    protocol - The protocol used to communicate to the Central service.\nDefault value\: http\nValid values\: http, https.\n    trustAllRoots - If true, enables weak security over SSL. A SSL certificate is trusted even if no trusted CA issued it.\nDefault value\: false.\nValid values\: true, false.\n    trustKeystore - The path of the truststore file. It may be empty if HTTPS server authentication is not to be used.\n    trustPassword - Password to unlock the truststore. Provide this input only if trustKeystore is not empty.\n    flow - The UUID or the path of the flow to run. When dealing with CloudSlang flows this input accepts also a flow namespace.\nExample\: /Library/Integrations/Amazon/S3/Buckets/Enumerate Buckets\n    schedule - The id of the schedule to update. If left blank, operation will try to create a new schedule.\n    names - A delimiter separated list of names of flow inputs.\n    values - A delimiter separated list of values of flow inputs.\n    delimiter - The delimiter separating lists of names and values.\nDefault value\: , (comma).\n    description - A description of this schedule. If this input is set then the provided value will be the "Schedule Name" in Central/Run Management/Scheduler and after the execution of the scheduled flow will appear as "Run Name" in Central/Run Management/Run Explorer. \nExample\: "Scheduled Flow Created By ..."\n    enabled - Set false to create the schedule disabled. This input is case insensitive.\nValid values\: true, false.\nDefault value\: true.\n    startTime - The time to start running the flow either as minutes from now or as a date. Use the utility operations from "Date and Time" folder to pass valid startTime value.\nExample\: Wed, 12 Dec 2012 12\:12\:12 GMT\nExample\: Wed, 12 Dec 2012 12\:12\:12 GMT+0430 (4 hours, 30 minutes west of the Greenwich meridian).\n    endTime - The time to end running the flow either as minutes from now or as a date. Use the utility operations from "Date and Time" folder to pass valid endTime value.\nExample\: Wed, 12 Dec 2012 12\:12\:12 GMT\nExample\: Wed, 12 Dec 2012 12\:12\:12 GMT+0430 (4 hours, 30 minutes west of the Greenwich meridian).\n    timesToRun - The number of times to re-run the flow schedule. If empty, the number of times to re-run the schedule will be computed as (endTime - startTime)/repeatInterval. If -1 the flow will be scheduled to run indefinitely, otherwise this input must have a positive value.\n    repeatInterval - Sets the time interval in minutes between schedule triggering. If empty, the operation will set it to 1 minute.\n\nReturns\:\n    returnResult - Thi is the primary output. The id of the schedule.\n    flowUuid - The UUID of the flow. This can be useful if the flow input is the path of the flow.\n\nResponses\:\n    success - The schedule was created or updated.\n    failure - Could not connect to central web service. Invalid inputs. Invalid flow path. The schedule ends before it starts. The schedule ends in the past.\n\nNotes\:\n1. "timesToRun" and "endTime" inputs are mutually exclusive.\n2. If the operation is used to update a flow schedule, only the values for the following fields can be updated\: "startTime", "endTime", "timesToRun", "repeatInterval", "names" and "values". \n3. "schedule" input needs to contain the Schedule ID for modifying a schedule, obtained prior to this operation. This can be obtained using the operation Get Flow Schedules. It is not the Schedule name.\n4. If you want to use the operation to create a new schedule, you must ensure the "schedule" input is empty and that "description" is populated, as this will become the new schedule's name.\n</pre>\n
af3ea868-08e0-45bf-96dc-c0edf14df4ba.d0b0b779-8119-483b-9f50-90fbb76cb6d7.description=Counts from one number to another number.\n\n<pre>\nInputs\:\nfrom - The number to start counting at.\nto - The number to count to.\nincrementBy - The number to increment by while counting. If unspecified this is 1. If you wanted to count 2,4,6,8 this would be 2.\nreset - If true, then the counter will restart counting from the beginning.\n\nNOTE\: These values must be between -9223372036854775808 and 9223372036854775807\n\nReturns\:\nThe number that was just counted.\n\nNote\: the primary result is resultString, Result can also be used. result (All lower case) should not be used as it is the response code.\n\nResponses\:\nhas more - Not yet done counting.\nno more - Done counting. This will only be returned once, then counting restarts.\nfailure - Something went wrong.\n</pre>
]]></descriptionCdata>
  <annotation></annotation>
  <name>dynamic_schd_flow</name>
  <categories/>
  <inputs/>
  <possibleResponses>
    <opResponse id="f1b6b4f3-a1c6-423f-88f3-9339b0c464b8">
      <annotation></annotation>
      <name>success</name>
      <isDefault>true</isDefault>
      <onFailure>false</onFailure>
      <type>RESOLVED</type>
      <matchRules/>
    </opResponse>
    <opResponse id="5d99bf05-422d-4527-ade7-81fd92abfc63">
      <annotation></annotation>
      <name>failure</name>
      <isDefault>false</isDefault>
      <onFailure>true</onFailure>
      <type>ERROR</type>
      <matchRules/>
    </opResponse>
  </possibleResponses>
  <availableResultExpressions/>
  <resultExpression id="c0031142-7b54-40ad-9510-d3e2ab2e7670">
    <annotation></annotation>
    <name>FailureMessage</name>
    <fieldName>FailureMessage</fieldName>
    <sourceType>RAWRESULT</sourceType>
    <filters/>
  </resultExpression>
  <iconSpec id="d74d1197-c678-4c14-b58f-e0964f67b1ac">
    <baseIcon>flow.png</baseIcon>
    <basePath>System</basePath>
    <readOnly>false</readOnly>
    <layers/>
  </iconSpec>
  <callouts/>
  <checkPointFlow>true</checkPointFlow>
  <compatibleRuntimeContext>false</compatibleRuntimeContext>
  <historyCheckPointFlow>true</historyCheckPointFlow>
  <steps>
    <step id="4f5a7589-c569-4285-a5ee-5b5d57ff686e">
      <annotation>af3ea868-08e0-45bf-96dc-c0edf14df4ba.4f5a7589-c569-4285-a5ee-5b5d57ff686e.description</annotation>
      <name>Schedule Flow</name>
      <bounds>
        <x>255.0</x>
        <y>332.0</y>
      </bounds>
      <layer>-1</layer>
      <hideInbound>false</hideInbound>
      <addResultToRunContext>false</addResultToRunContext>
      <isCriticalStep>false</isCriticalStep>
      <isNonBlocking>false</isNonBlocking>
      <isParallelStep>false</isParallelStep>
      <isSingleResponse>false</isSingleResponse>
      <recordInHistory>false</recordInHistory>
      <recordRawOutput>true</recordRawOutput>
      <recordPrimaryOutput>true</recordPrimaryOutput>
      <checkPointStep>true</checkPointStep>
      <historyCheckPointStep>true</historyCheckPointStep>
      <scriptResultStep>false</scriptResultStep>
      <userPrompt></userPrompt>
      <bindings>
        <staticBinding id="bf584587-a49c-438f-bd47-f2053012cfff">
          <annotation></annotation>
          <toContextKey></toContextKey>
          <fromContextKey></fromContextKey>
          <assignFromContext>false</assignFromContext>
          <assignToContext>false</assignToContext>
          <inputType>STRING</inputType>
          <isList>false</isList>
          <required>false</required>
          <isPersisted>true</isPersisted>
          <inputSymbol>host</inputSymbol>
          <listDelimiter>,</listDelimiter>
          <value>mahith2--677e18.swinfra.net</value>
          <record>false</record>
        </staticBinding>
        <staticBinding id="af4c670d-d90c-46a2-8642-c2626791d461">
          <annotation></annotation>
          <toContextKey></toContextKey>
          <fromContextKey></fromContextKey>
          <assignFromContext>false</assignFromContext>
          <assignToContext>false</assignToContext>
          <inputType>STRING</inputType>
          <isList>false</isList>
          <required>false</required>
          <isPersisted>true</isPersisted>
          <inputSymbol>username</inputSymbol>
          <listDelimiter>,</listDelimiter>
          <value>Admin</value>
          <record>false</record>
        </staticBinding>
        <staticBinding id="f0c9de73-5982-4d54-87c2-308f843a7a8f">
          <annotation></annotation>
          <toContextKey></toContextKey>
          <fromContextKey></fromContextKey>
          <assignFromContext>false</assignFromContext>
          <assignToContext>false</assignToContext>
          <inputType>ENCRYPTED</inputType>
          <isList>false</isList>
          <required>false</required>
          <isPersisted>true</isPersisted>
          <inputSymbol>password</inputSymbol>
          <listDelimiter>,</listDelimiter>
          <value>{OBFUSCATED}XgPFYGLsbJ/OlcMyTFbvng==</value>
          <record>false</record>
        </staticBinding>
        <staticBinding id="a6c430d0-f836-4684-8209-f285debf041f">
          <annotation></annotation>
          <toContextKey></toContextKey>
          <fromContextKey></fromContextKey>
          <assignFromContext>false</assignFromContext>
          <assignToContext>false</assignToContext>
          <inputType>STRING</inputType>
          <isList>false</isList>
          <required>false</required>
          <isPersisted>true</isPersisted>
          <inputSymbol>port</inputSymbol>
          <listDelimiter>,</listDelimiter>
          <value>8449</value>
          <record>false</record>
        </staticBinding>
        <staticBinding id="ef533eaf-36ca-4b0b-9b45-a1986a205da5">
          <annotation></annotation>
          <toContextKey></toContextKey>
          <fromContextKey></fromContextKey>
          <assignFromContext>false</assignFromContext>
          <assignToContext>false</assignToContext>
          <inputType>STRING</inputType>
          <isList>false</isList>
          <required>false</required>
          <isPersisted>true</isPersisted>
          <inputSymbol>protocol</inputSymbol>
          <listDelimiter>,</listDelimiter>
          <value>https</value>
          <record>false</record>
        </staticBinding>
        <staticBinding id="fb21e394-eb37-45de-b4c2-ed00cd165353">
          <annotation></annotation>
          <toContextKey></toContextKey>
          <fromContextKey></fromContextKey>
          <assignFromContext>false</assignFromContext>
          <assignToContext>false</assignToContext>
          <inputType>STRING</inputType>
          <isList>false</isList>
          <required>false</required>
          <isPersisted>true</isPersisted>
          <inputSymbol>trustAllRoots</inputSymbol>
          <listDelimiter>,</listDelimiter>
          <value>true</value>
          <record>false</record>
        </staticBinding>
        <staticBinding id="1771e315-36c2-4cb5-80b9-ee0d4c13a908">
          <annotation></annotation>
          <toContextKey></toContextKey>
          <fromContextKey></fromContextKey>
          <assignFromContext>false</assignFromContext>
          <assignToContext>false</assignToContext>
          <inputType>STRING</inputType>
          <isList>false</isList>
          <required>false</required>
          <isPersisted>true</isPersisted>
          <inputSymbol>trustKeystore</inputSymbol>
          <listDelimiter>,</listDelimiter>
          <record>false</record>
        </staticBinding>
        <staticBinding id="33f1c3b1-3c65-4539-914a-8295ecffe9df">
          <annotation></annotation>
          <toContextKey></toContextKey>
          <fromContextKey></fromContextKey>
          <assignFromContext>false</assignFromContext>
          <assignToContext>false</assignToContext>
          <inputType>ENCRYPTED</inputType>
          <isList>false</isList>
          <required>false</required>
          <isPersisted>true</isPersisted>
          <inputSymbol>trustPassword</inputSymbol>
          <listDelimiter>,</listDelimiter>
          <record>false</record>
        </staticBinding>
        <staticBinding id="2dd3b36a-e0da-4451-b296-182b5d2122c8">
          <annotation></annotation>
          <toContextKey></toContextKey>
          <fromContextKey></fromContextKey>
          <assignFromContext>false</assignFromContext>
          <assignToContext>false</assignToContext>
          <inputType>STRING</inputType>
          <isList>false</isList>
          <required>false</required>
          <isPersisted>true</isPersisted>
          <inputSymbol>flow</inputSymbol>
          <listDelimiter>,</listDelimiter>
          <value>ad0897a2-1a79-46db-8288-075e791ad459</value>
          <record>false</record>
        </staticBinding>
        <staticBinding id="db547313-5b94-4045-b956-9ab7a31e3b3b">
          <annotation></annotation>
          <toContextKey></toContextKey>
          <fromContextKey></fromContextKey>
          <assignFromContext>false</assignFromContext>
          <assignToContext>false</assignToContext>
          <inputType>STRING</inputType>
          <isList>false</isList>
          <required>false</required>
          <isPersisted>true</isPersisted>
          <inputSymbol>schedule</inputSymbol>
          <listDelimiter>,</listDelimiter>
          <record>false</record>
        </staticBinding>
        <staticBinding id="737b9ebc-7cd8-4808-b7f5-fcff84d7b549">
          <annotation></annotation>
          <toContextKey></toContextKey>
          <fromContextKey></fromContextKey>
          <assignFromContext>false</assignFromContext>
          <assignToContext>false</assignToContext>
          <inputType>STRING</inputType>
          <isList>false</isList>
          <required>false</required>
          <isPersisted>true</isPersisted>
          <inputSymbol>names</inputSymbol>
          <listDelimiter>,</listDelimiter>
          <value></value>
          <record>false</record>
        </staticBinding>
        <staticBinding id="3835f2ab-bc51-4cc5-b2ef-34afafcaf51c">
          <annotation></annotation>
          <toContextKey></toContextKey>
          <fromContextKey></fromContextKey>
          <assignFromContext>false</assignFromContext>
          <assignToContext>false</assignToContext>
          <inputType>STRING</inputType>
          <isList>false</isList>
          <required>false</required>
          <isPersisted>true</isPersisted>
          <inputSymbol>values</inputSymbol>
          <listDelimiter>,</listDelimiter>
          <value></value>
          <record>false</record>
        </staticBinding>
        <staticBinding id="6b80466b-8e0e-4a00-9539-7b68ee0186f0">
          <annotation></annotation>
          <toContextKey></toContextKey>
          <fromContextKey></fromContextKey>
          <assignFromContext>false</assignFromContext>
          <assignToContext>false</assignToContext>
          <inputType>STRING</inputType>
          <isList>false</isList>
          <required>false</required>
          <isPersisted>true</isPersisted>
          <inputSymbol>delimiter</inputSymbol>
          <listDelimiter>,</listDelimiter>
          <record>false</record>
        </staticBinding>
        <staticBinding id="3adc9d9d-9e70-42eb-9919-d8694e5708e9">
          <annotation></annotation>
          <toContextKey></toContextKey>
          <fromContextKey></fromContextKey>
          <assignFromContext>false</assignFromContext>
          <assignToContext>false</assignToContext>
          <inputType>STRING</inputType>
          <isList>false</isList>
          <required>false</required>
          <isPersisted>true</isPersisted>
          <inputSymbol>description</inputSymbol>
          <listDelimiter>,</listDelimiter>
          <value>Test2_multi_lane_sp_1_1000</value>
          <record>false</record>
        </staticBinding>
        <staticBinding id="47fa000f-fab5-45c0-aea2-659e2ee21bac">
          <annotation></annotation>
          <toContextKey></toContextKey>
          <fromContextKey></fromContextKey>
          <assignFromContext>false</assignFromContext>
          <assignToContext>false</assignToContext>
          <inputType>STRING</inputType>
          <isList>false</isList>
          <required>false</required>
          <isPersisted>true</isPersisted>
          <inputSymbol>enabled</inputSymbol>
          <listDelimiter>,</listDelimiter>
          <value>true</value>
          <record>false</record>
        </staticBinding>
        <staticBinding id="8fb42179-363c-4955-920f-80348dcf3c14">
          <annotation></annotation>
          <toContextKey></toContextKey>
          <fromContextKey></fromContextKey>
          <assignFromContext>false</assignFromContext>
          <assignToContext>false</assignToContext>
          <inputType>STRING</inputType>
          <isList>false</isList>
          <required>false</required>
          <isPersisted>true</isPersisted>
          <inputSymbol>startTime</inputSymbol>
          <listDelimiter>,</listDelimiter>
          <value>Thursday, July 28, 2022 04:47:00 PM GMT+0530</value>
          <record>false</record>
        </staticBinding>
        <staticBinding id="c89c65ea-5873-46cf-9268-d01fc5b1f815">
          <annotation></annotation>
          <toContextKey></toContextKey>
          <fromContextKey></fromContextKey>
          <assignFromContext>false</assignFromContext>
          <assignToContext>false</assignToContext>
          <inputType>STRING</inputType>
          <isList>false</isList>
          <required>false</required>
          <isPersisted>true</isPersisted>
          <inputSymbol>endTime</inputSymbol>
          <listDelimiter>,</listDelimiter>
          <value></value>
          <record>false</record>
        </staticBinding>
        <staticBinding id="5baae6da-ac50-44ee-a555-19d8900e1545">
          <annotation></annotation>
          <toContextKey></toContextKey>
          <fromContextKey></fromContextKey>
          <assignFromContext>false</assignFromContext>
          <assignToContext>false</assignToContext>
          <inputType>STRING</inputType>
          <isList>false</isList>
          <required>false</required>
          <isPersisted>true</isPersisted>
          <inputSymbol>timesToRun</inputSymbol>
          <listDelimiter>,</listDelimiter>
          <value>3</value>
          <record>false</record>
        </staticBinding>
        <staticBinding id="25720e88-e768-4b56-bf6e-cb84b06d23cb">
          <annotation></annotation>
          <toContextKey></toContextKey>
          <fromContextKey></fromContextKey>
          <assignFromContext>false</assignFromContext>
          <assignToContext>false</assignToContext>
          <inputType>STRING</inputType>
          <isList>false</isList>
          <required>false</required>
          <isPersisted>true</isPersisted>
          <inputSymbol>repeatInterval</inputSymbol>
          <listDelimiter>,</listDelimiter>
          <value>1</value>
          <record>false</record>
        </staticBinding>
        <staticBinding id="3cc111ca-6a45-4456-bd0e-892bf5ff9545">
          <annotation></annotation>
          <assignFromContext>false</assignFromContext>
          <assignToContext>false</assignToContext>
          <inputType>STRING</inputType>
          <isList>false</isList>
          <required>false</required>
          <isPersisted>true</isPersisted>
          <inputSymbol>inputPromptUseBlank</inputSymbol>
          <listDelimiter>,</listDelimiter>
          <value>true</value>
          <record>false</record>
        </staticBinding>
      </bindings>
      <transitions>
        <transition id="a8795039-4f94-4f11-857c-d5d929b81c0a">
          <annotation></annotation>
          <name>failure</name>
          <command>NEXT</command>
          <linkMode>false</linkMode>
          <responseSymbol>failure</responseSymbol>
          <shouldHandoff>false</shouldHandoff>
          <transitionValue>0.0</transitionValue>
          <destination>
            <refId>cde98a4a-2052-4eb8-b6b2-ccafe0d1f47e</refId>
          </destination>
          <source>
            <refId>4f5a7589-c569-4285-a5ee-5b5d57ff686e</refId>
          </source>
          <positions>
            <point>
              <x>362.0</x>
              <y>366.0</y>
            </point>
            <point>
              <x>601.0</x>
              <y>520.0</y>
            </point>
          </positions>
          <labelPosition>
            <x>333.0</x>
            <y>0.0</y>
          </labelPosition>
        </transition>
        <transition id="4087887e-2f68-4aee-b1e9-c69dad14ffa0">
          <annotation></annotation>
          <name>success</name>
          <command>NEXT</command>
          <linkMode>false</linkMode>
          <responseSymbol>success</responseSymbol>
          <shouldHandoff>false</shouldHandoff>
          <transitionValue>0.0</transitionValue>
          <destination>
            <refId>d0b0b779-8119-483b-9f50-90fbb76cb6d7</refId>
          </destination>
          <source>
            <refId>4f5a7589-c569-4285-a5ee-5b5d57ff686e</refId>
          </source>
          <positions>
            <point>
              <x>362.0</x>
              <y>366.0</y>
            </point>
            <point>
              <x>426.98063064717593</x>
              <y>367.5867075014953</y>
            </point>
            <point>
              <x>503.1177517917552</x>
              <y>338.02282535493</y>
            </point>
            <point>
              <x>550.0</x>
              <y>293.0</y>
            </point>
          </positions>
          <labelPosition>
            <x>333.0</x>
            <y>0.0</y>
          </labelPosition>
        </transition>
      </transitions>
      <properties/>
      <opRef>
        <refId>658da2a8-4636-4ea0-b923-b7d23bf81fa7</refId>
      </opRef>
      <assignments/>
      <throttleSize>0</throttleSize>
    </step>
    <returnStep id="631ab5e8-8885-47a7-85ae-7d501005844a">
      <annotation></annotation>
      <name>Resolved : success</name>
      <bounds>
        <x>724.0</x>
        <y>142.0</y>
      </bounds>
      <layer>-1</layer>
      <hideInbound>false</hideInbound>
      <addResultToRunContext>false</addResultToRunContext>
      <isCriticalStep>false</isCriticalStep>
      <isNonBlocking>false</isNonBlocking>
      <isParallelStep>false</isParallelStep>
      <isSingleResponse>false</isSingleResponse>
      <recordInHistory>false</recordInHistory>
      <recordRawOutput>true</recordRawOutput>
      <recordPrimaryOutput>true</recordPrimaryOutput>
      <checkPointStep>true</checkPointStep>
      <historyCheckPointStep>true</historyCheckPointStep>
      <scriptResultStep>false</scriptResultStep>
      <userPrompt></userPrompt>
      <bindings/>
      <transitions>
        <transition id="f06265bc-4fc5-4ce1-9eea-ec8af91cd326">
          <annotation></annotation>
          <name>return</name>
          <command>NEXT</command>
          <linkMode>false</linkMode>
          <responseSymbol>success</responseSymbol>
          <shouldHandoff>false</shouldHandoff>
          <transitionValue>0.0</transitionValue>
          <destination>
            <refId>631ab5e8-8885-47a7-85ae-7d501005844a</refId>
          </destination>
          <source>
            <refId>631ab5e8-8885-47a7-85ae-7d501005844a</refId>
          </source>
          <positions/>
        </transition>
      </transitions>
      <properties/>
      <returnStepType>RESOLVED</returnStepType>
      <assignments/>
    </returnStep>
    <returnStep id="cde98a4a-2052-4eb8-b6b2-ccafe0d1f47e">
      <annotation></annotation>
      <name>Error : failure</name>
      <bounds>
        <x>551.0</x>
        <y>486.0</y>
      </bounds>
      <layer>-1</layer>
      <hideInbound>false</hideInbound>
      <addResultToRunContext>false</addResultToRunContext>
      <isCriticalStep>false</isCriticalStep>
      <isNonBlocking>false</isNonBlocking>
      <isParallelStep>false</isParallelStep>
      <isSingleResponse>false</isSingleResponse>
      <recordInHistory>false</recordInHistory>
      <recordRawOutput>true</recordRawOutput>
      <recordPrimaryOutput>true</recordPrimaryOutput>
      <checkPointStep>true</checkPointStep>
      <historyCheckPointStep>true</historyCheckPointStep>
      <scriptResultStep>false</scriptResultStep>
      <userPrompt></userPrompt>
      <bindings/>
      <transitions>
        <transition id="98d68736-2ad8-4593-b6bf-9136db18739d">
          <annotation></annotation>
          <name>return</name>
          <command>NEXT</command>
          <linkMode>false</linkMode>
          <responseSymbol>failure</responseSymbol>
          <shouldHandoff>false</shouldHandoff>
          <transitionValue>0.0</transitionValue>
          <destination>
            <refId>cde98a4a-2052-4eb8-b6b2-ccafe0d1f47e</refId>
          </destination>
          <source>
            <refId>cde98a4a-2052-4eb8-b6b2-ccafe0d1f47e</refId>
          </source>
          <positions/>
        </transition>
      </transitions>
      <properties/>
      <returnStepType>ERROR</returnStepType>
      <assignments/>
    </returnStep>
    <step id="d0b0b779-8119-483b-9f50-90fbb76cb6d7">
      <annotation>af3ea868-08e0-45bf-96dc-c0edf14df4ba.d0b0b779-8119-483b-9f50-90fbb76cb6d7.description</annotation>
      <name>Counter</name>
      <bounds>
        <x>500.0</x>
        <y>259.0</y>
      </bounds>
      <layer>-1</layer>
      <hideInbound>false</hideInbound>
      <addResultToRunContext>false</addResultToRunContext>
      <isCriticalStep>false</isCriticalStep>
      <isNonBlocking>false</isNonBlocking>
      <isParallelStep>false</isParallelStep>
      <isSingleResponse>false</isSingleResponse>
      <recordInHistory>false</recordInHistory>
      <recordRawOutput>true</recordRawOutput>
      <recordPrimaryOutput>true</recordPrimaryOutput>
      <checkPointStep>true</checkPointStep>
      <historyCheckPointStep>true</historyCheckPointStep>
      <scriptResultStep>false</scriptResultStep>
      <userPrompt></userPrompt>
      <bindings>
        <staticBinding id="eb2d73fb-20f6-45aa-8eff-a0c094762382">
          <annotation></annotation>
          <assignFromContext>false</assignFromContext>
          <assignToContext>false</assignToContext>
          <inputType>STRING</inputType>
          <isList>false</isList>
          <required>true</required>
          <isPersisted>true</isPersisted>
          <inputSymbol>from</inputSymbol>
          <listDelimiter>,</listDelimiter>
          <value>1</value>
          <record>false</record>
        </staticBinding>
        <staticBinding id="0a87b119-8ea7-4f2e-b3bc-34f301c5257e">
          <annotation></annotation>
          <assignFromContext>false</assignFromContext>
          <assignToContext>false</assignToContext>
          <inputType>STRING</inputType>
          <isList>false</isList>
          <required>true</required>
          <isPersisted>true</isPersisted>
          <inputSymbol>to</inputSymbol>
          <listDelimiter>,</listDelimiter>
          <value>9</value>
          <record>false</record>
        </staticBinding>
        <staticBinding id="5dcef53f-cb41-4cae-807d-a8928c093cde">
          <annotation></annotation>
          <assignFromContext>false</assignFromContext>
          <assignToContext>false</assignToContext>
          <inputType>STRING</inputType>
          <isList>false</isList>
          <required>false</required>
          <isPersisted>true</isPersisted>
          <inputSymbol>incrementBy</inputSymbol>
          <listDelimiter>,</listDelimiter>
          <value>1</value>
          <record>false</record>
        </staticBinding>
        <staticBinding id="3fc32cc4-dbf4-4641-b952-141b78bd1d97">
          <annotation></annotation>
          <assignFromContext>false</assignFromContext>
          <assignToContext>false</assignToContext>
          <inputType>STRING</inputType>
          <isList>false</isList>
          <required>false</required>
          <isPersisted>true</isPersisted>
          <inputSymbol>reset</inputSymbol>
          <listDelimiter>,</listDelimiter>
          <value>false</value>
          <record>false</record>
        </staticBinding>
      </bindings>
      <transitions>
        <transition id="e9c04296-0ba3-4d32-b195-aa767d1d64ed">
          <annotation></annotation>
          <name>no more</name>
          <command>NEXT</command>
          <linkMode>false</linkMode>
          <responseSymbol>no more</responseSymbol>
          <shouldHandoff>false</shouldHandoff>
          <transitionValue>0.0</transitionValue>
          <destination>
            <refId>631ab5e8-8885-47a7-85ae-7d501005844a</refId>
          </destination>
          <source>
            <refId>d0b0b779-8119-483b-9f50-90fbb76cb6d7</refId>
          </source>
          <positions>
            <point>
              <x>550.0</x>
              <y>293.0</y>
            </point>
            <point>
              <x>774.0</x>
              <y>176.0</y>
            </point>
          </positions>
          <labelPosition>
            <x>333.0</x>
            <y>0.0</y>
          </labelPosition>
        </transition>
        <transition id="783aaf11-6507-4b6e-93eb-e56cba07ac21">
          <annotation></annotation>
          <name>failure</name>
          <command>NEXT</command>
          <linkMode>false</linkMode>
          <responseSymbol>failure</responseSymbol>
          <shouldHandoff>false</shouldHandoff>
          <transitionValue>0.0</transitionValue>
          <destination>
            <refId>cde98a4a-2052-4eb8-b6b2-ccafe0d1f47e</refId>
          </destination>
          <source>
            <refId>d0b0b779-8119-483b-9f50-90fbb76cb6d7</refId>
          </source>
          <positions>
            <point>
              <x>550.0</x>
              <y>293.0</y>
            </point>
            <point>