<?xml version="1.0" encoding="UTF-8"?>
<flow id="d5d641bb-bdef-4de5-abee-72e93aa0fc2f">
  <descriptionCdata><![CDATA[d5d641bb-bdef-4de5-abee-72e93aa0fc2f.968b9d8c-a092-4d17-8234-114866faaca8.prompt=Enter name
d5d641bb-bdef-4de5-abee-72e93aa0fc2f.f333c1de-2feb-4bfb-a2e8-d233c81598e3.description=<pre>\nSchedule Flow - Schedules a flow or updates an existing schedule of a flow.\n\nInputs\:\n    host - The target host for your request. The host can also be given as a URL.\n    username - The username to use when connecting to the Central service.\n    password - The password to use when connecting to the Central service.\n    port - The port the Central service is running on.\nDefault value\: 8080.\n    protocol - The protocol used to communicate to the Central service.\nDefault value\: http\nValid values\: http, https.\n    trustAllRoots - If true, enables weak security over SSL. A SSL certificate is trusted even if no trusted CA issued it.\nDefault value\: false.\nValid values\: true, false.\n    trustKeystore - The path of the truststore file. It may be empty if HTTPS server authentication is not to be used.\n    trustPassword - Password to unlock the truststore. Provide this input only if trustKeystore is not empty.\n    flow - The UUID or the path of the flow to run. When dealing with CloudSlang flows this input accepts also a flow namespace.\nExample\: /Library/Integrations/Amazon/S3/Buckets/Enumerate Buckets\n    schedule - The id of the schedule to update. If left blank, operation will try to create a new schedule.\n    names - A delimiter separated list of names of flow inputs.\n    values - A delimiter separated list of values of flow inputs.\n    delimiter - The delimiter separating lists of names and values.\nDefault value\: , (comma).\n    description - A description of this schedule. If this input is set then the provided value will be the "Schedule Name" in Central/Run Management/Scheduler and after the execution of the scheduled flow will appear as "Run Name" in Central/Run Management/Run Explorer. \nExample\: "Scheduled Flow Created By ..."\n    enabled - Set false to create the schedule disabled. This input is case insensitive.\nValid values\: true, false.\nDefault value\: true.\n    startTime - The time to start running the flow either as minutes from now or as a date. Use the utility operations from "Date and Time" folder to pass valid startTime value.\nExample\: Wed, 12 Dec 2012 12\:12\:12 GMT\nExample\: Wed, 12 Dec 2012 12\:12\:12 GMT+0430 (4 hours, 30 minutes west of the Greenwich meridian).\n    endTime - The time to end running the flow either as minutes from now or as a date. Use the utility operations from "Date and Time" folder to pass valid endTime value.\nExample\: Wed, 12 Dec 2012 12\:12\:12 GMT\nExample\: Wed, 12 Dec 2012 12\:12\:12 GMT+0430 (4 hours, 30 minutes west of the Greenwich meridian).\n    timesToRun - The number of times to re-run the flow schedule. If empty, the number of times to re-run the schedule will be computed as (endTime - startTime)/repeatInterval. If -1 the flow will be scheduled to run indefinitely, otherwise this input must have a positive value.\n    repeatInterval - Sets the time interval in minutes between schedule triggering. If empty, the operation will set it to 1 minute.\n\nReturns\:\n    returnResult - Thi is the primary output. The id of the schedule.\n    flowUuid - The UUID of the flow. This can be useful if the flow input is the path of the flow.\n\nResponses\:\n    success - The schedule was created or updated.\n    failure - Could not connect to central web service. Invalid inputs. Invalid flow path. The schedule ends before it starts. The schedule ends in the past.\n\nNotes\:\n1. "timesToRun" and "endTime" inputs are mutually exclusive.\n2. If the operation is used to update a flow schedule, only the values for the following fields can be updated\: "startTime", "endTime", "timesToRun", "repeatInterval", "names" and "values". \n3. "schedule" input needs to contain the Schedule ID for modifying a schedule, obtained prior to this operation. This can be obtained using the operation Get Flow Schedules. It is not the Schedule name.\n4. If you want to use the operation to create a new schedule, you must ensure the "schedule" input is empty and that "description" is populated, as this will become the new schedule's name.\n</pre>\n
]]></descriptionCdata>
  <annotation></annotation>
  <name>my_flow</name>
  <categories/>
  <inputs>
    <userInputBinding id="968b9d8c-a092-4d17-8234-114866faaca8">
      <annotation></annotation>
      <assignFromContext>false</assignFromContext>
      <assignToContext>false</assignToContext>
      <inputType>STRING</inputType>
      <isList>false</isList>
      <required>false</required>
      <isPersisted>true</isPersisted>
      <inputSymbol>name</inputSymbol>
      <listDelimiter>,</listDelimiter>
      <record>false</record>
      <prompt>d5d641bb-bdef-4de5-abee-72e93aa0fc2f.968b9d8c-a092-4d17-8234-114866faaca8.prompt</prompt>
      <isMultiSelect>false</isMultiSelect>
      <sourceDelimiter>|</sourceDelimiter>
    </userInputBinding>
  </inputs>
  <possibleResponses>
    <opResponse id="2a6faf89-4854-4e90-877d-bf1bf5777942">
      <annotation></annotation>
      <name>failure</name>
      <isDefault>false</isDefault>
      <onFailure>true</onFailure>
      <type>ERROR</type>
      <matchRules/>
    </opResponse>
    <opResponse id="6d59658f-4401-4fe6-8f8b-c368f4ea3eba">
      <annotation></annotation>
      <name>success</name>
      <isDefault>true</isDefault>
      <onFailure>false</onFailure>
      <type>RESOLVED</type>
      <matchRules/>
    </opResponse>
  </possibleResponses>
  <availableResultExpressions/>
  <resultExpression id="fcc656f8-1db8-4569-877e-6205901cccfe">
    <annotation></annotation>
    <name>FailureMessage</name>
    <fieldName>FailureMessage</fieldName>
    <sourceType>RAWRESULT</sourceType>
    <filters/>
  </resultExpression>
  <iconSpec id="a4a09438-f588-4ff0-93ad-03e17de1c37f">
    <baseIcon>flow.png</baseIcon>
    <basePath>System</basePath>
    <readOnly>false</readOnly>
    <layers/>
  </iconSpec>
  <callouts/>
  <checkPointFlow>true</checkPointFlow>
  <compatibleRuntimeContext>false</compatibleRuntimeContext>
  <historyCheckPointFlow>true</historyCheckPointFlow>
  <steps>
    <step id="f333c1de-2feb-4bfb-a2e8-d233c81598e3">
      <annotation>d5d641bb-bdef-4de5-abee-72e93aa0fc2f.f333c1de-2feb-4bfb-a2e8-d233c81598e3.description</annotation>
      <name>Schedule Flow</name>
      <bounds>
        <x>630.0</x>
        <y>90.0</y>
      </bounds>
      <layer>-1</layer>
      <hideInbound>false</hideInbound>
      <addResultToRunContext>false</addResultToRunContext>
      <isCriticalStep>false</isCriticalStep>
      <isNonBlocking>false</isNonBlocking>
      <isParallelStep>false</isParallelStep>
      <isSingleResponse>false</isSingleResponse>
      <recordInHistory>false</recordInHistory>
      <recordRawOutput>true</recordRawOutput>
      <recordPrimaryOutput>true</recordPrimaryOutput>
      <checkPointStep>true</checkPointStep>
      <historyCheckPointStep>true</historyCheckPointStep>
      <scriptResultStep>false</scriptResultStep>
      <userPrompt></userPrompt>
      <bindings>
        <staticBinding id="fe79ac9f-55d2-4549-8746-5b9c9ddc5e06">
          <annotation></annotation>
          <toContextKey></toContextKey>
          <fromContextKey></fromContextKey>
          <assignFromContext>false</assignFromContext>
          <assignToContext>false</assignToContext>
          <inputType>STRING</inputType>
          <isList>false</isList>
          <required>false</required>
          <isPersisted>true</isPersisted>
          <inputSymbol>host</inputSymbol>
          <listDelimiter>,</listDelimiter>
          <value>testvm-f-49af8b.swinfra.net</value>
          <record>false</record>
        </staticBinding>
        <staticBinding id="b9fa86de-3c2f-41d8-b043-2d2cdd7c7f25">
          <annotation></annotation>
          <toContextKey></toContextKey>
          <fromContextKey></fromContextKey>
          <assignFromContext>false</assignFromContext>
          <assignToContext>false</assignToContext>
          <inputType>STRING</inputType>
          <isList>false</isList>
          <required>false</required>
          <isPersisted>true</isPersisted>
          <inputSymbol>username</inputSymbol>
          <listDelimiter>,</listDelimiter>
          <record>false</record>
        </staticBinding>
        <staticBinding id="e54ac185-cf2f-4b8f-9de3-76dbe7f0f072">
          <annotation></annotation>
          <toContextKey></toContextKey>
          <fromContextKey></fromContextKey>
          <assignFromContext>false</assignFromContext>
          <assignToContext>false</assignToContext>
          <inputType>ENCRYPTED</inputType>
          <isList>false</isList>
          <required>false</required>
          <isPersisted>true</isPersisted>
          <inputSymbol>password</inputSymbol>
          <listDelimiter>,</listDelimiter>
          <record>false</record>
        </staticBinding>
        <staticBinding id="8287e9f2-648a-45ce-95ee-6b1a6a01595c">
          <annotation></annotation>
          <toContextKey></toContextKey>
          <fromContextKey></fromContextKey>
          <assignFromContext>false</assignFromContext>
          <assignToContext>false</assignToContext>
          <inputType>STRING</inputType>
          <isList>false</isList>
          <required>false</required>
          <isPersisted>true</isPersisted>
          <inputSymbol>port</inputSymbol>
          <listDelimiter>,</listDelimiter>
          <value>8499</value>
          <record>false</record>
        </staticBinding>
        <staticBinding id="f08e5bae-e16b-4978-b234-852a8be3719a">
          <annotation></annotation>
          <toContextKey></toContextKey>
          <fromContextKey></fromContextKey>
          <assignFromContext>false</assignFromContext>
          <assignToContext>false</assignToContext>
          <inputType>STRING</inputType>
          <isList>false</isList>
          <required>false</required>
          <isPersisted>true</isPersisted>
          <inputSymbol>protocol</inputSymbol>
          <listDelimiter>,</listDelimiter>
          <value>https</value>
          <record>false</record>
        </staticBinding>
        <staticBinding id="35ae0736-b0f7-4075-bea9-6d6d7d88cb78">
          <annotation></annotation>
          <toContextKey></toContextKey>
          <fromContextKey></fromContextKey>
          <assignFromContext>false</assignFromContext>
          <assignToContext>false</assignToContext>
          <inputType>STRING</inputType>
          <isList>false</isList>
          <required>false</required>
          <isPersisted>true</isPersisted>
          <inputSymbol>trustAllRoots</inputSymbol>
          <listDelimiter>,</listDelimiter>
          <value>true</value>
          <record>false</record>
        </staticBinding>
        <staticBinding id="120b825c-d4e6-4b74-b5ca-6c7fbfb05144">
          <annotation></annotation>
          <toContextKey></toContextKey>
          <fromContextKey></fromContextKey>
          <assignFromContext>false</assignFromContext>
          <assignToContext>false</assignToContext>
          <inputType>STRING</inputType>
          <isList>false</isList>
          <required>false</required>
          <isPersisted>true</isPersisted>
          <inputSymbol>trustKeystore</inputSymbol>
          <listDelimiter>,</listDelimiter>
          <record>false</record>
        </staticBinding>
        <staticBinding id="b98cae5a-ba3d-46d0-b0f2-5275b4e4fc3d">
          <annotation></annotation>
          <toContextKey></toContextKey>
          <fromContextKey></fromContextKey>
          <assignFromContext>false</assignFromContext>
          <assignToContext>false</assignToContext>
          <inputType>ENCRYPTED</inputType>
          <isList>false</isList>
          <required>false</required>
          <isPersisted>true</isPersisted>
          <inputSymbol>trustPassword</inputSymbol>
          <listDelimiter>,</listDelimiter>
          <record>false</record>
        </staticBinding>
        <staticBinding id="272a968d-ec16-46a6-8d97-7aa7e87a60cc">
          <annotation></annotation>
          <toContextKey></toContextKey>
          <fromContextKey></fromContextKey>
          <assignFromContext>false</assignFromContext>
          <assignToContext>false</assignToContext>
          <inputType>STRING</inputType>
          <isList>false</isList>
          <required>false</required>
          <isPersisted>true</isPersisted>
          <inputSymbol>flow</inputSymbol>
          <listDelimiter>,</listDelimiter>
          <value>06fe8531-868b-4e79-aa7a-13a5e30a66ec</value>
          <record>false</record>
        </staticBinding>
        <staticBinding id="0f8bab30-aeb7-44bd-8adf-3ba47a92d16e">
          <annotation></annotation>
          <toContextKey></toContextKey>
          <fromContextKey></fromContextKey>
          <assignFromContext>false</assignFromContext>
          <assignToContext>false</assignToContext>
          <inputType>STRING</inputType>
          <isList>false</isList>
          <required>false</required>
          <isPersisted>true</isPersisted>
          <inputSymbol>schedule</inputSymbol>
          <listDelimiter>,</listDelimiter>
          <record>false</record>
        </staticBinding>
        <staticBinding id="5b1c88e7-8185-4ce0-9a1a-fb20acbc3eef">
          <annotation></annotation>
          <toContextKey></toContextKey>
          <fromContextKey></fromContextKey>
          <assignFromContext>false</assignFromContext>
          <assignToContext>false</assignToContext>
          <inputType>STRING</inputType>
          <isList>false</isList>
          <required>false</required>
          <isPersisted>true</isPersisted>
          <inputSymbol>names</inputSymbol>
          <listDelimiter>,</listDelimiter>
          <value>min,max</value>
          <record>false</record>
        </staticBinding>
        <staticBinding id="18a43a9e-42b2-46e0-b808-c49d237cc79c">
          <annotation></annotation>
          <toContextKey></toContextKey>
          <fromContextKey></fromContextKey>
          <assignFromContext>false</assignFromContext>
          <assignToContext>false</assignToContext>
          <inputType>STRING</inputType>
          <isList>false</isList>
          <required>false</required>
          <isPersisted>true</isPersisted>
          <inputSymbol>values</inputSymbol>
          <listDelimiter>,</listDelimiter>
          <value>2,10</value>
          <record>false</record>
        </staticBinding>
        <staticBinding id="2535c8b0-f659-4fe4-b985-60f34c88b2e8">
          <annotation></annotation>
          <toContextKey></toContextKey>
          <fromContextKey></fromContextKey>
          <assignFromContext>false</assignFromContext>
          <assignToContext>false</assignToContext>
          <inputType>STRING</inputType>
          <isList>false</isList>
          <required>false</required>
          <isPersisted>true</isPersisted>
          <inputSymbol>delimiter</inputSymbol>
          <listDelimiter>,</listDelimiter>
          <record>false</record>
        </staticBinding>
        <staticBinding id="b18558e1-d453-4006-9621-d42201d9e02d">
          <annotation></annotation>
          <toContextKey></toContextKey>
          <fromContextKey></fromContextKey>
          <assignFromContext>false</assignFromContext>
          <assignToContext>false</assignToContext>
          <inputType>STRING</inputType>
          <isList>false</isList>
          <required>false</required>
          <isPersisted>true</isPersisted>
          <inputSymbol>description</inputSymbol>
          <listDelimiter>,</listDelimiter>
          <value>my scheduled &quot;Generate Random Number.xml&quot;. Test2_cust_input</value>
          <record>false</record>
        </staticBinding>
        <staticBinding id="7cfcbe75-6811-4743-9d1a-b02b97df66ce">
          <annotation></annotation>
          <toContextKey></toContextKey>
          <fromContextKey></fromContextKey>
          <assignFromContext>false</assignFromContext>
          <assignToContext>false</assignToContext>
          <inputType>STRING</inputType>
          <isList>false</isList>
          <required>false</required>
          <isPersisted>true</isPersisted>
          <inputSymbol>enabled</inputSymbol>
          <listDelimiter>,</listDelimiter>
          <value>true</value>
          <record>false</record>
        </staticBinding>
        <staticBinding id="fd4bc76d-6f12-4de5-8c2d-614f356b7719">
          <annotation></annotation>
          <toContextKey></toContextKey>
          <fromContextKey></fromContextKey>
          <assignFromContext>false</assignFromContext>
          <assignToContext>false</assignToContext>
          <inputType>STRING</inputType>
          <isList>false</isList>
          <required>false</required>
          <isPersisted>true</isPersisted>
          <inputSymbol>startTime</inputSymbol>
          <listDelimiter>,</listDelimiter>
          <value>30</value>
          <record>false</record>
        </staticBinding>
        <staticBinding id="49ed6e8c-142f-4fe2-9ff2-7463dd2675b4">
          <annotation></annotation>
          <toContextKey></toContextKey>
          <fromContextKey></fromContextKey>
          <assignFromContext>false</assignFromContext>
          <assignToContext>false</assignToContext>
          <inputType>STRING</inputType>
          <isList>false</isList>
          <required>false</required>
          <isPersisted>true</isPersisted>
          <inputSymbol>endTime</inputSymbol>
          <listDelimiter>,</listDelimiter>
          <value></value>
          <record>false</record>
        </staticBinding>
        <staticBinding id="e6ba0311-03e6-48e2-8ed3-a688400caa12">
          <annotation></annotation>
          <toContextKey></toContextKey>
          <fromContextKey></fromContextKey>
          <assignFromContext>false</assignFromContext>
          <assignToContext>false</assignToContext>
          <inputType>STRING</inputType>
          <isList>false</isList>
          <required>false</required>
          <isPersisted>true</isPersisted>
          <inputSymbol>timesToRun</inputSymbol>
          <listDelimiter>,</listDelimiter>
          <value>1</value>
          <record>false</record>
        </staticBinding>
        <staticBinding id="634c28b7-6965-4ccc-b6cc-610e2f2c69f5">
          <annotation></annotation>
          <toContextKey></toContextKey>
          <fromContextKey></fromContextKey>
          <assignFromContext>false</assignFromContext>
          <assignToContext>false</assignToContext>
          <inputType>STRING</inputType>
          <isList>false</isList>
          <required>false</required>
          <isPersisted>true</isPersisted>
          <inputSymbol>repeatInterval</inputSymbol>
          <listDelimiter>,</listDelimiter>
          <value></value>
          <record>false</record>
        </staticBinding>
        <staticBinding id="7159a6b3-b440-4b18-ae2e-72acbcdb64ec">
          <annotation></annotation>
          <assignFromContext>false</assignFromContext>
          <assignToContext>false</assignToContext>
          <inputType>STRING</inputType>
          <isList>false</isList>
          <required>false</required>
          <isPersisted>true</isPersisted>
          <inputSymbol>inputPromptUseBlank</inputSymbol>
          <listDelimiter>,</listDelimiter>
          <value>true</value>
          <record>false</record>
        </staticBinding>
      </bindings>
      <transitions>
        <transition id="a1292659-84b0-4b05-b2c5-4d1634882eb2">
          <annotation></annotation>
          <name>failure</name>
          <command>NEXT</command>
          <linkMode>false</linkMode>
          <responseSymbol>failure</responseSymbol>
          <shouldHandoff>false</shouldHandoff>
          <transitionValue>0.0</transitionValue>
          <destination>
            <refId>2bbc1302-5b5f-4778-a160-295e4c58731f</refId>
          </destination>
          <source>
            <refId>f333c1de-2feb-4bfb-a2e8-d233c81598e3</refId>
          </source>
          <positions>
            <point>
              <x>718.0</x>
              <y>135.0</y>
            </point>
            <point>
              <x>957.0</x>
              <y>289.0</y>
            </point>
          </positions>
          <labelPosition>
            <x>333.0</x>
            <y>0.0</y>
          </labelPosition>
        </transition>
        <transition id="d81d67a7-2334-4a3d-a08e-e54d8625463e">
          <annotation></annotation>
          <name>success</name>
          <command>NEXT</command>
          <linkMode>false</linkMode>
          <responseSymbol>success</responseSymbol>
          <shouldHandoff>false</shouldHandoff>
          <transitionValue>0.0</transitionValue>
          <destination>
            <refId>04acb6a3-0313-430b-b0bf-455552a3e607</refId>
          </destination>
          <source>
            <refId>f333c1de-2feb-4bfb-a2e8-d233c81598e3</refId>
          </source>
          <positions>
            <point>
              <x>718.0</x>
              <y>135.0</y>
            </point>
            <point>
              <x>970.0</x>
              <y>33.0</y>
            </point>
          </positions>
          <labelPosition>
            <x>333.0</x>
            <y>0.0</y>
          </labelPosition>
        </transition>
      </transitions>
      <properties/>
      <opRef>
        <refId>658da2a8-4636-4ea0-b923-b7d23bf81fa7</refId>
      </opRef>
      <assignments/>
      <throttleSize>0</throttleSize>
    </step>
    <returnStep id="2bbc1302-5b5f-4778-a160-295e4c58731f">
      <annotation></annotation>
      <name>Error : failure</name>
      <bounds>
        <x>870.0</x>
        <y>240.0</y>
      </bounds>
      <layer>-1</layer>
      <hideInbound>false</hideInbound>
      <addResultToRunContext>false</addResultToRunContext>
      <isCriticalStep>false</isCriticalStep>
      <isNonBlocking>false</isNonBlocking>
      <isParallelStep>false</isParallelStep>
      <isSingleResponse>false</isSingleResponse>
      <recordInHistory>false</recordInHistory>
      <recordRawOutput>true</recordRawOutput>
      <recordPrimaryOutput>true</recordPrimaryOutput>
      <checkPointStep>true</checkPointStep>
      <historyCheckPointStep>true</historyCheckPointStep>
      <scriptResultStep>false</scriptResultStep>
      <userPrompt></userPrompt>
      <bindings/>
      <transitions>
        <transition id="b8f3c6de-57b2-482d-b011-7f8b6dc2c8d1">
          <annotation></annotation>
          <name>return</name>
          <command>NEXT</command>
          <linkMode>false</linkMode>
          <responseSymbol>failure</responseSymbol>
          <shouldHandoff>false</shouldHandoff>
          <transitionValue>0.0</transitionValue>
          <destination>
            <refId>2bbc1302-5b5f-4778-a160-295e4c58731f</refId>
          </destination>
          <source>
            <refId>2bbc1302-5b5f-4778-a160-295e4c58731f</refId>
          </source>
          <positions/>
        </transition>
      </transitions>
      <properties/>
      <returnStepType>ERROR</returnStepType>
      <assignments/>
    </returnStep>
    <returnStep id="04acb6a3-0313-430b-b0bf-455552a3e607">
      <annotation></annotation>
      <name>Resolved : success</name>
      <bounds>
        <x>900.0</x>
        <y>0.0</y>
      </bounds>
      <layer>-1</layer>
      <hideInbound>false</hideInbound>
      <addResultToRunContext>false</addResultToRunContext>
      <isCriticalStep>false</isCriticalStep>
      <isNonBlocking>false</isNonBlocking>
      <isParallelStep>false</isParallelStep>
      <isSingleResponse>false</isSingleResponse>
      <recordInHistory>false</recordInHistory>
      <recordRawOutput>true</recordRawOutput>
      <recordPrimaryOutput>true</recordPrimaryOutput>
      <checkPointStep>true</checkPointStep>
      <historyCheckPointStep>true</historyCheckPointStep>
      <scriptResultStep>false</scriptResultStep>
      <userPrompt></userPrompt>
      <bindings/>
      <transitions>
        <transition id="caa475e1-b723-406b-9149-90cf382d5143">
          <annotation></annotation>
          <name>return</name>
          <command>NEXT</command>
          <linkMode>false</linkMode>
          <responseSymbol>success</responseSymbol>
          <shouldHandoff>false</shouldHandoff>
          <transitionValue>0.0</transitionValue>
          <destination>
            <refId>04acb6a3-0313-430b-b0bf-455552a3e607</refId>
          </destination>
          <source>
            <refId>04acb6a3-0313-430b-b0bf-455552a3e607</refId>
          </source>
          <positions/>
        </transition>
      </transitions>
      <properties/>
      <returnStepType>RESOLVED</returnStepType>
      <assignments/>
    </returnStep>
  </steps>
  <startSteps>f333c1de-2feb-4bfb-a2e8-d233c81598e3</startSteps>
</flow>