<?xml version="1.0" encoding="UTF-8"?>
<flow id="3b49667b-5085-436a-a08b-fd1450b9d1d0">
  <descriptionCdata><![CDATA[3b49667b-5085-436a-a08b-fd1450b9d1d0.00eb6117-2472-47e2-bc5e-d9339c40ce61.description=The "Generate Random Number" step generates a random number.\n\nStep Inputs\:\n"max" - The maximum number that can be returned.\n"min" - The minimum number that can be returned.\n\nStep Results\:\nA random number between "max" and "min" (inclusive) is generated and assigned to the "randomNumber" flow variable which is defined on the Results tab .\n\nStep Responses\:\n"success" - The step was able to generate a random number. The flow transitions to the end step of the lane.\n"failure" - The step was unable to generate a random number. The flow transitions to the end step of the lane.\n
3b49667b-5085-436a-a08b-fd1450b9d1d0.03b51ee6-b45c-4b83-bf53-5b5e257e8feb.description=The "Generate Random Number" step generates a random number.\n\nStep Inputs\:\n"max" - The maximum number that can be returned.\n"min" - The minimum number that can be returned.\n\nStep Results\:\nA random number between "max" and "min" (inclusive) is generated and assigned to the "randomNumber" flow variable which is defined on the Results tab .\n\nStep Responses\:\n"success" - The step was able to generate a random number. The flow transitions to the end step of the lane.\n"failure" - The step was unable to generate a random number. The flow transitions to the end step of the lane.\n
3b49667b-5085-436a-a08b-fd1450b9d1d0.0e7bc860-3302-4510-8745-2a32a2b0850a.description=The "Generate Random Number" step generates a random number.\n\nStep Inputs\:\n"max" - The maximum number that can be returned.\n"min" - The minimum number that can be returned.\n\nStep Results\:\nA random number between "max" and "min" (inclusive) is generated and assigned to the "randomNumber" flow variable which is defined on the Results tab .\n\nStep Responses\:\n"success" - The step was able to generate a random number. The flow transitions to the end step of the lane.\n"failure" - The step was unable to generate a random number. The flow transitions to the end step of the lane.\n
3b49667b-5085-436a-a08b-fd1450b9d1d0.100d3cd2-7c48-4cf7-9aec-8747c58cd955.description=This a parallel split step.
3b49667b-5085-436a-a08b-fd1450b9d1d0.1350e73b-7031-4d8e-ada4-a7ef26210dfa.description=<pre>\nThis operation waits for the number of seconds specified in the "seconds" input.\n\nInputs\:\n    seconds - The number of seconds to wait.\n\nResults\:\n    resultString \u2013 This is the primary output. It contains the "completed sleep" message if the operation completed successfully and an error message otherwise. \n\nResponses\:\n    success - The operation completed as stated in the description.\n    failure - The operation completed unsuccessfully.\n</pre>
3b49667b-5085-436a-a08b-fd1450b9d1d0.16b2bc0a-2f07-4b56-8b79-8e759b277a8e.description=The "Generate Random Number" step generates a random number.\n\nStep Inputs\:\n"max" - The maximum number that can be returned.\n"min" - The minimum number that can be returned.\n\nStep Results\:\nA random number between "max" and "min" (inclusive) is generated and assigned to the "randomNumber" flow variable which is defined on the Results tab .\n\nStep Responses\:\n"success" - The step was able to generate a random number. The flow transitions to the end step of the lane.\n"failure" - The step was unable to generate a random number. The flow transitions to the end step of the lane.\n
3b49667b-5085-436a-a08b-fd1450b9d1d0.43ae8fc5-92fc-4e93-8d09-3bb7f3dec20e.description=The "Generate Random Number" step generates a random number.\n\nStep Inputs\:\n"max" - The maximum number that can be returned.\n"min" - The minimum number that can be returned.\n\nStep Results\:\nA random number between "max" and "min" (inclusive) is generated and assigned to the "randomNumber" flow variable which is defined on the Results tab .\n\nStep Responses\:\n"success" - The step was able to generate a random number. The flow transitions to the end step of the lane.\n"failure" - The step was unable to generate a random number. The flow transitions to the end step of the lane.\n
3b49667b-5085-436a-a08b-fd1450b9d1d0.5e04f31c-53bf-425f-aa75-abd29f8503fd.description=<pre>\nThis operation waits for the number of seconds specified in the "seconds" input.\n\nInputs\:\n    seconds - The number of seconds to wait.\n\nResults\:\n    resultString \u2013 This is the primary output. It contains the "completed sleep" message if the operation completed successfully and an error message otherwise. \n\nResponses\:\n    success - The operation completed as stated in the description.\n    failure - The operation completed unsuccessfully.\n</pre>
3b49667b-5085-436a-a08b-fd1450b9d1d0.5e0c6d0f-6f53-47d9-a3a5-b6b8ad0f1c71.description=The "Generate Random Number" step generates a random number.\n\nStep Inputs\:\n"max" - The maximum number that can be returned.\n"min" - The minimum number that can be returned.\n\nStep Results\:\nA random number between "max" and "min" (inclusive) is generated and assigned to the "randomNumber" flow variable which is defined on the Results tab .\n\nStep Responses\:\n"success" - The step was able to generate a random number. The flow transitions to the end step of the lane.\n"failure" - The step was unable to generate a random number. The flow transitions to the end step of the lane.\n
3b49667b-5085-436a-a08b-fd1450b9d1d0.716176ec-5ffd-4b2f-9c99-67d48a611778.description=<pre>\nThis operation waits for the number of seconds specified in the "seconds" input.\n\nInputs\:\n    seconds - The number of seconds to wait.\n\nResults\:\n    resultString \u2013 This is the primary output. It contains the "completed sleep" message if the operation completed successfully and an error message otherwise. \n\nResponses\:\n    success - The operation completed as stated in the description.\n    failure - The operation completed unsuccessfully.\n</pre>
3b49667b-5085-436a-a08b-fd1450b9d1d0.772b42cf-726c-4841-a8fb-5c7cb02b4f96.description=The "Generate Random Number" step generates a random number.\n\nStep Inputs\:\n"max" - The maximum number that can be returned.\n"min" - The minimum number that can be returned.\n\nStep Results\:\nA random number between "max" and "min" (inclusive) is generated and assigned to the "randomNumber" flow variable which is defined on the Results tab .\n\nStep Responses\:\n"success" - The step was able to generate a random number. The flow transitions to the end step of the lane.\n"failure" - The step was unable to generate a random number. The flow transitions to the end step of the lane.\n
3b49667b-5085-436a-a08b-fd1450b9d1d0.ce7e762a-84c0-47fb-99e4-c80658e35011.description=End Branch
3b49667b-5085-436a-a08b-fd1450b9d1d0.e8c18784-8ca7-4786-893d-d627300f59f8.description=The "Generate Random Number" step generates a random number.\n\nStep Inputs\:\n"max" - The maximum number that can be returned.\n"min" - The minimum number that can be returned.\n\nStep Results\:\nA random number between "max" and "min" (inclusive) is generated and assigned to the "randomNumber" flow variable which is defined on the Results tab .\n\nStep Responses\:\n"success" - The step was able to generate a random number. The flow transitions to the end step of the lane.\n"failure" - The step was unable to generate a random number. The flow transitions to the end step of the lane.\n
]]></descriptionCdata>
  <annotation></annotation>
  <name>parallel_split_flow</name>
  <categories/>
  <inputs/>
  <possibleResponses>
    <opResponse id="61e5ad25-f9ed-4fdd-ab45-cdbd78a5766d">
      <annotation></annotation>
      <name>success</name>
      <isDefault>true</isDefault>
      <onFailure>false</onFailure>
      <type>RESOLVED</type>
      <matchRules/>
    </opResponse>
  </possibleResponses>
  <availableResultExpressions/>
  <resultExpression id="5e75b750-d8d8-4044-a24f-3aedddb14262">
    <annotation></annotation>
    <name>FailureMessage</name>
    <fieldName>FailureMessage</fieldName>
    <sourceType>RAWRESULT</sourceType>
    <filters/>
  </resultExpression>
  <iconSpec id="b085ddd4-2934-4aeb-8da1-264c57607785">
    <baseIcon>flow.png</baseIcon>
    <basePath>System</basePath>
    <readOnly>false</readOnly>
    <layers/>
  </iconSpec>
  <callouts/>
  <checkPointFlow>true</checkPointFlow>
  <compatibleRuntimeContext>false</compatibleRuntimeContext>
  <historyCheckPointFlow>true</historyCheckPointFlow>
  <steps>
    <parallelMultiStep id="100d3cd2-7c48-4cf7-9aec-8747c58cd955">
      <annotation>3b49667b-5085-436a-a08b-fd1450b9d1d0.100d3cd2-7c48-4cf7-9aec-8747c58cd955.description</annotation>
      <name>Parallel Split</name>
      <bounds>
        <x>229.0</x>
        <y>127.0</y>
      </bounds>
      <layer>-1</layer>
      <hideInbound>false</hideInbound>
      <addResultToRunContext>false</addResultToRunContext>
      <isCriticalStep>false</isCriticalStep>
      <isNonBlocking>false</isNonBlocking>
      <isParallelStep>false</isParallelStep>
      <isSingleResponse>true</isSingleResponse>
      <recordInHistory>false</recordInHistory>
      <recordRawOutput>false</recordRawOutput>
      <recordPrimaryOutput>false</recordPrimaryOutput>
      <checkPointStep>true</checkPointStep>
      <historyCheckPointStep>true</historyCheckPointStep>
      <scriptResultStep>false</scriptResultStep>
      <userPrompt></userPrompt>
      <bindings/>
      <transitions>
        <transition id="f3b82e99-14e9-4fe9-87f2-e8c46735a2ac">
          <annotation></annotation>
          <name>done</name>
          <command>NEXT</command>
          <linkMode>false</linkMode>
          <responseSymbol>done</responseSymbol>
          <shouldHandoff>false</shouldHandoff>
          <transitionValue>0.0</transitionValue>
          <destination>
            <refId>5e04f31c-53bf-425f-aa75-abd29f8503fd</refId>
          </destination>
          <source>
            <refId>100d3cd2-7c48-4cf7-9aec-8747c58cd955</refId>
          </source>
          <positions>
            <point>
              <x>279.0</x>
              <y>161.0</y>
            </point>
            <point>
              <x>1280.0</x>
              <y>124.0</y>
            </point>
          </positions>
          <labelPosition>
            <x>333.0</x>
            <y>0.0</y>
          </labelPosition>
        </transition>
      </transitions>
      <properties/>
      <doneResponse>
        <refId>ce7e762a-84c0-47fb-99e4-c80658e35011</refId>
      </doneResponse>
      <steps>
        <step id="0e7bc860-3302-4510-8745-2a32a2b0850a">
          <annotation>3b49667b-5085-436a-a08b-fd1450b9d1d0.0e7bc860-3302-4510-8745-2a32a2b0850a.description</annotation>
          <name>Generate Random Number</name>
          <bounds>
            <x>376.0</x>
            <y>486.0</y>
          </bounds>
          <layer>-1</layer>
          <hideInbound>false</hideInbound>
          <addResultToRunContext>false</addResultToRunContext>
          <isCriticalStep>false</isCriticalStep>
          <isNonBlocking>false</isNonBlocking>
          <isParallelStep>false</isParallelStep>
          <isSingleResponse>false</isSingleResponse>
          <recordInHistory>false</recordInHistory>
          <recordRawOutput>false</recordRawOutput>
          <recordPrimaryOutput>false</recordPrimaryOutput>
          <checkPointStep>true</checkPointStep>
          <historyCheckPointStep>true</historyCheckPointStep>
          <scriptResultStep>false</scriptResultStep>
          <userPrompt></userPrompt>
          <bindings>
            <staticBinding id="c86d359e-7539-40bb-9e79-e3dfa20a4c7a">
              <annotation></annotation>
              <assignFromContext>true</assignFromContext>
              <assignToContext>true</assignToContext>
              <inputType>STRING</inputType>
              <isList>false</isList>
              <required>true</required>
              <isPersisted>true</isPersisted>
              <inputSymbol>max</inputSymbol>
              <listDelimiter>,</listDelimiter>
              <value>100</value>
              <record>false</record>
            </staticBinding>
            <staticBinding id="d71113c6-714f-43cd-83a5-84a23c0f67e3">
              <annotation></annotation>
              <assignFromContext>true</assignFromContext>
              <assignToContext>true</assignToContext>
              <inputType>STRING</inputType>
              <isList>false</isList>
              <required>true</required>
              <isPersisted>true</isPersisted>
              <inputSymbol>min</inputSymbol>
              <listDelimiter>,</listDelimiter>
              <value>1</value>
              <record>false</record>
            </staticBinding>
          </bindings>
          <transitions>
            <transition id="079dc6a1-d6ab-4318-bd26-7f35ffeb9387">
              <annotation></annotation>
              <name>success</name>
              <command>NEXT</command>
              <linkMode>false</linkMode>
              <responseSymbol>success</responseSymbol>
              <shouldHandoff>false</shouldHandoff>
              <transitionValue>0.0</transitionValue>
              <destination>
                <refId>1350e73b-7031-4d8e-ada4-a7ef26210dfa</refId>
              </destination>
              <source>
                <refId>0e7bc860-3302-4510-8745-2a32a2b0850a</refId>
              </source>
              <positions>
                <point>
                  <x>557.0</x>
                  <y>663.0</y>
                </point>
                <point>
                  <x>716.0</x>
                  <y>661.0</y>
                </point>
              </positions>
              <labelPosition>
                <x>333.0</x>
                <y>0.0</y>
              </labelPosition>
            </transition>
            <transition id="f5f38ad3-8996-41f5-b56b-34820f46bd1f">
              <annotation></annotation>
              <name>failure</name>
              <command>NEXT</command>
              <linkMode>false</linkMode>
              <responseSymbol>failure</responseSymbol>
              <shouldHandoff>false</shouldHandoff>
              <transitionValue>0.0</transitionValue>
              <destination>
                <refId>1350e73b-7031-4d8e-ada4-a7ef26210dfa</refId>
              </destination>
              <source>
                <refId>0e7bc860-3302-4510-8745-2a32a2b0850a</refId>
              </source>
              <positions>
                <point>
                  <x>557.0</x>
                  <y>663.0</y>
                </point>
                <point>
                  <x>486.3096944496607</x>
                  <y>544.2433651828406</y>
                </point>
                <point>
                  <x>525.3191866186361</x>
                  <y>543.752679746753</y>
                </point>
                <point>
                  <x>716.0</x>
                  <y>661.0</y>
                </point>
              </positions>
              <labelPosition>
                <x>333.0</x>
                <y>0.0</y>
              </labelPosition>
            </transition>
          </transitions>
          <properties/>
          <opRef>
            <refId>2c22355a-9c26-4a9e-893c-01a35e4bb0e3</refId>
          </opRef>
          <assignments>
            <flowVariableAssignment id="9370facf-e874-4523-be0d-f27350760fe2">
              <annotation></annotation>
              <name>assignment</name>
              <action>OVERWRITE</action>
              <assignmentTargetType>FLOW_VARIABLE</assignmentTargetType>
              <contextKey>randomNumber</contextKey>
              <expression id="fdf17d2e-3319-46d2-b2a6-0cf356650817">
                <annotation></annotation>
                <name>Result Field: returnResult</name>
                <fieldName>returnResult</fieldName>
                <sourceType>RAWRESULT</sourceType>
                <filters/>
              </expression>
            </flowVariableAssignment>
          </assignments>
          <throttleSize>0</throttleSize>
        </step>
        <step id="5e0c6d0f-6f53-47d9-a3a5-b6b8ad0f1c71">
          <annotation>3b49667b-5085-436a-a08b-fd1450b9d1d0.5e0c6d0f-6f53-47d9-a3a5-b6b8ad0f1c71.description</annotation>
          <name>Generate Random Number</name>
          <bounds>
            <x>383.0</x>
            <y>221.0</y>
          </bounds>
          <layer>-1</layer>
          <hideInbound>false</hideInbound>
          <addResultToRunContext>false</addResultToRunContext>
          <isCriticalStep>false</isCriticalStep>
          <isNonBlocking>false</isNonBlocking>
          <isParallelStep>false</isParallelStep>
          <isSingleResponse>false</isSingleResponse>
          <recordInHistory>false</recordInHistory>
          <recordRawOutput>false</recordRawOutput>
          <recordPrimaryOutput>false</recordPrimaryOutput>
          <checkPointStep>true</checkPointStep>
          <historyCheckPointStep>true</historyCheckPointStep>
          <scriptResultStep>false</scriptResultStep>
          <userPrompt></userPrompt>
          <bindings>
            <staticBinding id="231cc77f-9e57-45ec-a819-be96f5c49d40">
              <annotation></annotation>
              <assignFromContext>true</assignFromContext>
              <assignToContext>true</assignToContext>
              <inputType>STRING</inputType>
              <isList>false</isList>
              <required>true</required>
              <isPersisted>true</isPersisted>
              <inputSymbol>max</inputSymbol>
              <listDelimiter>,</listDelimiter>
              <value>100</value>
              <record>false</record>
            </staticBinding>
            <staticBinding id="0424ec8d-0f19-4a96-b4db-3bd37a07363c">
              <annotation></annotation>
              <assignFromContext>true</assignFromContext>
              <assignToContext>true</assignToContext>
              <inputType>STRING</inputType>
              <isList>false</isList>
              <required>true</required>
              <isPersisted>true</isPersisted>
              <inputSymbol>min</inputSymbol>
              <listDelimiter>,</listDelimiter>
              <value>1</value>
              <record>false</record>
            </staticBinding>
          </bindings>
          <transitions>
            <transition id="7b009213-5fbc-4898-b76a-5c5f40120ea9">
              <annotation></annotation>
              <name>success</name>
              <command>NEXT</command>
              <linkMode>false</linkMode>
              <responseSymbol>success</responseSymbol>
              <shouldHandoff>false</shouldHandoff>
              <transitionValue>0.0</transitionValue>
              <destination>
                <refId>716176ec-5ffd-4b2f-9c99-67d48a611778</refId>
              </destination>
              <source>
                <refId>5e0c6d0f-6f53-47d9-a3a5-b6b8ad0f1c71</refId>
              </source>
              <positions>
                <point>
                  <x>564.0</x>
                  <y>398.0</y>
                </point>
                <point>
                  <x>713.0</x>
                  <y>405.0</y>
                </point>
              </positions>
              <labelPosition>
                <x>333.0</x>
                <y>0.0</y>
              </labelPosition>
            </transition>
            <transition id="12a4fbee-e39a-41a1-acd1-ba6abb2bf124">
              <annotation></annotation>
              <name>failure</name>
              <command>NEXT</command>
              <linkMode>false</linkMode>
              <responseSymbol>failure</responseSymbol>
              <shouldHandoff>false</shouldHandoff>
              <transitionValue>0.0</transitionValue>
              <destination>
                <refId>716176ec-5ffd-4b2f-9c99-67d48a611778</refId>
              </destination>
              <source>
                <refId>5e0c6d0f-6f53-47d9-a3a5-b6b8ad0f1c71</refId>
              </source>
              <positions>
                <point>
                  <x>564.0</x>
                  <y>398.0</y>
                </point>
                <point>
                  <x>494.10709883548634</x>
                  <y>232.8432296597606</y>
                </point>
                <point>
                  <x>523.2393064955527</x>
                  <y>234.21185686526712</y>
                </point>
                <point>
                  <x>713.0</x>
                  <y>405.0</y>
                </point>
              </positions>
              <labelPosition>
                <x>333.0</x>
                <y>0.0</y>
              </labelPosition>
            </transition>
          </transitions>
          <properties/>
          <opRef>
            <refId>2c22355a-9c26-4a9e-893c-01a35e4bb0e3</refId>
          </opRef>
          <assignments>
            <flowVariableAssignment id="15a06603-345e-4e05-92ba-e9472b11d659">
              <annotation></annotation>
              <name>assignment</name>
              <action>OVERWRITE</action>
              <assignmentTargetType>FLOW_VARIABLE</assignmentTargetType>
              <contextKey>randomNumber</contextKey>
              <expression id="567bee99-0422-4da7-b084-df1162a13d3b">
                <annotation></annotation>
                <name>Result Field: returnResult</name>
                <fieldName>returnResult</fieldName>
                <sourceType>RAWRESULT</sourceType>
                <filters/>
              </expression>
            </flowVariableAssignment>
          </assignments>
          <throttleSize>0</throttleSize>
        </step>
        <endBranchStep id="ce7e762a-84c0-47fb-99e4-c80658e35011">
          <annotation>3b49667b-5085-436a-a08b-fd1450b9d1d0.ce7e762a-84c0-47fb-99e4-c80658e35011.description</annotation>
          <name>End Branch</name>
          <bounds>
            <x>0.0</x>
            <y>0.0</y>
          </bounds>
          <layer>-1</layer>
          <hideInbound>false</hideInbound>
          <addResultToRunContext>false</addResultToRunContext>
          <isCriticalStep>false</isCriticalStep>
          <isNonBlocking>false</isNonBlocking>
          <isParallelStep>false</isParallelStep>
          <isSingleResponse>false</isSingleResponse>
          <recordInHistory>false</recordInHistory>
          <recordRawOutput>true</recordRawOutput>
          <recordPrimaryOutput>true</recordPrimaryOutput>
          <checkPointStep>true</checkPointStep>
          <historyCheckPointStep>true</historyCheckPointStep>
          <scriptResultStep>false</scriptResultStep>
          <userPrompt></userPrompt>
          <bindings/>
          <transitions>
            <transition id="396bd574-75f5-4130-b7ad-8b29eae8ae29">
              <annotation></annotation>
              <name>End Branch</name>
              <command>NEXT</command>
              <linkMode>false</linkMode>
              <responseSymbol>success</responseSymbol>
              <shouldHandoff>false</shouldHandoff>
              <transitionValue>0.0</transitionValue>
              <destination>
                <refId>ce7e762a-84c0-47fb-99e4-c80658e35011</refId>
              </destination>
              <source>
                <refId>ce7e762a-84c0-47fb-99e4-c80658e35011</refId>
              </source>
              <positions/>
            </transition>
          </transitions>
          <properties/>
        </endBranchStep>
        <step id="00eb6117-2472-47e2-bc5e-d9339c40ce61">
          <annotation>3b49667b-5085-436a-a08b-fd1450b9d1d0.00eb6117-2472-47e2-bc5e-d9339c40ce61.description</annotation>
          <name>Generate Random Number</name>
          <bounds>
            <x>1031.0</x>
            <y>464.0</y>
          </bounds>
          <layer>-1</layer>
          <hideInbound>false</hideInbound>
          <addResultToRunContext>false</addResultToRunContext>
          <isCriticalStep>false</isCriticalStep>
          <isNonBlocking>false</isNonBlocking>
          <isParallelStep>false</isParallelStep>
          <isSingleResponse>false</isSingleResponse>
          <recordInHistory>false</recordInHistory>
          <recordRawOutput>false</recordRawOutput>
          <recordPrimaryOutput>false</recordPrimaryOutput>
          <checkPointStep>true</checkPointStep>
          <historyCheckPointStep>true</historyCheckPointStep>
          <scriptResultStep>false</scriptResultStep>
          <userPrompt></userPrompt>
          <bindings>
            <staticBinding id="77000ef5-7138-4d2f-b32e-dbe983d13554">
              <annotation></annotation>
              <assignFromContext>true</assignFromContext>
              <assignToContext>true</assignToContext>
              <inputType>STRING</inputType>
              <isList>false</isList>
              <required>true</required>
              <isPersisted>true</isPersisted>
              <inputSymbol>max</inputSymbol>
              <listDelimiter>,</listDelimiter>
              <value>100</value>
              <record>false</record>
            </staticBinding>
            <staticBinding id="69a00b55-d2cc-4585-beac-35608cd78947">
              <annotation></annotation>
              <assignFromContext>true</assignFromContext>
              <assignToContext>true</assignToContext>
              <inputType>STRING</inputType>
              <isList>false</isList>
              <required>true</required>
              <isPersisted>true</isPersisted>
              <inputSymbol>min</inputSymbol>
              <listDelimiter>,</listDelimiter>
              <value>1</value>
              <record>false</record>
            </staticBinding>
          </bindings>
          <transitions>
            <transition id="640a7a8b-9d9f-4e75-af7b-a30726b132af">
              <annotation></annotation>
              <name>success</name>
              <command>NEXT</command>
              <linkMode>false</linkMode>
              <responseSymbol>success</responseSymbol>
              <shouldHandoff>false</shouldHandoff>
              <transitionValue>0.0</transitionValue>
              <destination>
                <refId>ce7e762a-84c0-47fb-99e4-c80658e35011</refId>
              </destination>
              <source>
                <refId>00eb6117-2472-47e2-bc5e-d9339c40ce61</refId>
              </source>
              <positions>
                <point>
                  <x>1212.0</x>
                  <y>641.0</y>
                </point>
                <point>
                  <x>1318.0</x>
                  <y>692.5</y>
                </point>
              </positions>
              <labelPosition>
                <x>333.0</x>
                <y>0.0</y>
              </labelPosition>
            </transition>
            <transition id="174eeb5e-3239-4a93-846f-c770899aef15">
              <annotation></annotation>
              <name>failure</name>
              <command>NEXT</command>
              <linkMode>false</linkMode>
              <responseSymbol>failure</responseSymbol>
              <shouldHandoff>false</shouldHandoff>
              <transitionValue>0.0</transitionValue>
              <destination>
                <refId>ce7e762a-84c0-47fb-99e4-c80658e35011</refId>
              </destination>
              <source>
                <refId>00eb6117-2472-47e2-bc5e-d9339c40ce61</refId>
              </source>
              <positions>
                <point>
                  <x>1212.0</x>
                  <y>641.0</y>
                </point>
                <point>
                  <x>1144.925051048396</x>
                  <y>501.2634871625247</y>
                </point>
                <point>
                  <x>1318.0</x>
                  <y>692.5</y>
                </point>
              </positions>
              <labelPosition>
                <x>333.0</x>
                <y>0.0</y>
              </labelPosition>
            </transition>
          </transitions>
          <properties/>
          <opRef>
            <refId>2c22355a-9c26-4a9e-893c-01a35e4bb0e3</refId>
          </opRef>
          <assignments>
            <flowVariableAssignment id="4f5a8a2a-d647-4d67-8fa4-29feb70fce95">
              <annotation></annotation>
              <name>assignment</name>
              <action>OVERWRITE</action>
              <assignmentTargetType>FLOW_VARIABLE</assignmentTargetType>
              <contextKey>randomNumber</contextKey>
              <expression id="6180cf46-a5e2-40fc-9cdb-1d37616b8312">
                <annotation></annotation>
                <name>Result Field: returnResult</name>
                <fieldName>returnResult</fieldName>
                <sourceType>RAWRESULT</sourceType>
                <filters/>
              </expression>
            </flowVariableAssignment>
          </assignments>
          <throttleSize>0</throttleSize>
        </step>
        <step id="1350e73b-7031-4d8e-ada4-a7ef26210dfa">
          <annotation>3b49667b-5085-436a-a08b-fd1450b9d1d0.1350e73b-7031-4d8e-ada4-a7ef26210dfa.description</annotation>
          <name>Sleep</name>
          <bounds>
            <x>535.0</x>
            <y>484.0</y>
          </bounds>
          <layer>-1</layer>
          <hideInbound>false</hideInbound>
          <addResultToRunContext>false</addResultToRunContext>
          <isCriticalStep>false</isCriticalStep>
          <isNonBlocking>false</isNonBlocking>
          <isParallelStep>false</isParallelStep>
          <isSingleResponse>false</isSingleResponse>
          <recordInHistory>false</recordInHistory>
          <recordRawOutput>true</recordRawOutput>
          <recordPrimaryOutput>true</recordPrimaryOutput>
          <checkPointStep>true</checkPointStep>
          <historyCheckPointStep>true</historyCheckPointStep>
          <scriptResultStep>false</scriptResultStep>
          <userPrompt></userPrompt>
          <bindings>
            <staticBinding id="ecf8c2f7-3445-4db1-9fce-2c58ed96099b">
              <annotation></annotation>
              <assignFromContext>false</assignFromContext>
              <assignToContext>false</assignToContext>